Version 4
SHEET 1 2248 680
WIRE 192 -640 -272 -640
WIRE 192 -592 -240 -592
WIRE 560 -592 400 -592
WIRE -576 -400 -624 -400
WIRE -336 -352 -368 -352
WIRE 528 -352 400 -352
WIRE -576 -304 -592 -304
WIRE -592 -240 -592 -304
WIRE -304 -240 -592 -240
WIRE -624 -208 -624 -400
WIRE 144 -208 -624 -208
WIRE -576 -144 -608 -144
WIRE 496 -128 400 -128
WIRE -576 -48 -592 -48
WIRE -272 -32 -272 -640
WIRE -272 -32 -400 -32
WIRE -304 0 -304 -240
WIRE 864 0 -304 0
WIRE -592 32 -592 -48
WIRE -240 32 -240 -592
WIRE -240 32 -592 32
WIRE 112 32 -240 32
WIRE 496 32 496 -128
WIRE 496 32 288 32
WIRE -608 48 -608 -144
WIRE -528 48 -608 48
WIRE 528 48 528 -352
WIRE 528 48 320 48
WIRE -336 64 -336 -352
WIRE 192 64 -336 64
WIRE 560 64 560 -592
WIRE 560 64 368 64
WIRE -528 128 -528 48
WIRE -400 128 -400 -32
WIRE -400 128 -528 128
WIRE 368 128 368 64
WIRE -336 144 -336 64
WIRE 112 144 112 32
WIRE -720 160 -784 160
WIRE 320 160 320 48
WIRE 368 160 320 160
WIRE -80 176 -112 176
WIRE 624 176 592 176
WIRE -112 192 -112 176
WIRE -112 192 -144 192
WIRE 592 192 592 176
WIRE 592 192 560 192
WIRE -720 224 -752 224
WIRE -512 224 -528 224
WIRE 288 224 288 32
WIRE 368 224 288 224
WIRE -368 240 -368 -96
WIRE -336 240 -368 240
WIRE -80 240 -128 240
WIRE 144 240 144 -208
WIRE 144 240 112 240
WIRE 624 240 576 240
WIRE 864 240 864 0
WIRE 864 240 816 240
WIRE 1296 240 1248 240
WIRE 2048 240 2000 240
WIRE 192 256 192 64
WIRE 368 256 192 256
WIRE -80 272 -96 272
WIRE 624 272 608 272
WIRE 1296 272 1280 272
WIRE 2048 272 2032 272
WIRE -784 288 -784 160
WIRE -512 288 -512 224
WIRE -512 288 -784 288
WIRE -752 384 -752 224
WIRE -752 384 -960 384
WIRE -128 384 -128 240
WIRE -128 384 -752 384
WIRE 576 384 576 240
WIRE 576 384 -128 384
WIRE 1248 384 1248 240
WIRE 1248 384 576 384
WIRE 2000 384 2000 240
WIRE 2000 384 1248 384
WIRE -720 432 -720 256
WIRE -720 432 -960 432
WIRE -96 432 -96 272
WIRE -96 432 -720 432
WIRE 608 432 608 272
WIRE 608 432 -96 432
WIRE 1280 432 1280 272
WIRE 1280 432 608 432
WIRE 2032 432 2032 272
WIRE 2032 432 1280 432
SYMBOL dTrig 16 192 R0
SYMATTR InstName X1
SYMBOL dTrig 720 192 R0
SYMATTR InstName X2
SYMBOL dTrig 1392 192 R0
SYMATTR InstName X3
SYMBOL dTrig 2144 192 R0
SYMATTR InstName X4
SYMBOL dTrig -624 176 R0
SYMATTR InstName X5
SYMBOL AND2 -240 192 R0
SYMATTR InstName X6
SYMBOL NAND2 -480 -96 R0
SYMATTR InstName X7
SYMBOL NAND2 -480 -352 R0
SYMATTR InstName X8
SYMBOL AND4 464 192 R0
SYMATTR InstName X9
SYMBOL NAND2 288 -128 R0
SYMATTR InstName X10
SYMBOL NAND2 288 -352 R0
SYMATTR InstName X11
SYMBOL NAND3 288 -592 R0
SYMATTR InstName X12
