Version 4
SHEET 1 880 680
SYMBOL odnSum 208 176 R0
SYMATTR InstName X1
SYMBOL preobr 576 160 R0
SYMATTR InstName X2
