Version 4
SHEET 1 1524 2164
WIRE -48 736 -80 736
WIRE 400 736 192 736
WIRE 1136 736 400 736
WIRE -48 784 -80 784
WIRE -48 832 -80 832
WIRE 320 832 192 832
WIRE 320 848 320 832
WIRE 832 848 320 848
WIRE 832 896 736 896
WIRE -80 912 -80 832
WIRE 192 912 -80 912
WIRE 832 944 816 944
WIRE 1136 944 1072 944
WIRE -48 992 -80 992
WIRE 192 992 192 912
WIRE 816 1024 816 944
WIRE 1072 1024 816 1024
WIRE -48 1040 -80 1040
WIRE -48 1088 -80 1088
WIRE 240 1088 192 1088
WIRE 832 1088 240 1088
WIRE 1072 1088 1072 1024
WIRE 832 1136 688 1136
WIRE -80 1168 -80 1088
WIRE 192 1168 -80 1168
WIRE 400 1168 400 736
WIRE 688 1184 688 1136
WIRE 688 1184 640 1184
WIRE 832 1184 816 1184
WIRE 1136 1184 1072 1184
WIRE 320 1200 320 848
WIRE 400 1200 320 1200
WIRE -48 1232 -80 1232
WIRE 192 1232 192 1168
WIRE 240 1232 240 1088
WIRE 400 1232 240 1232
WIRE 400 1264 240 1264
WIRE 816 1264 816 1184
WIRE 1072 1264 816 1264
WIRE -48 1280 -80 1280
WIRE 736 1280 736 896
WIRE 736 1280 640 1280
WIRE -48 1328 -80 1328
WIRE 240 1328 240 1264
WIRE 240 1328 192 1328
WIRE 736 1328 736 1280
WIRE 832 1328 736 1328
WIRE 1072 1328 1072 1264
WIRE 688 1376 688 1184
WIRE 832 1376 688 1376
WIRE -80 1408 -80 1328
WIRE 192 1408 -80 1408
WIRE 240 1424 240 1328
WIRE 832 1424 240 1424
WIRE 1136 1424 1072 1424
WIRE -48 1472 -80 1472
WIRE 192 1472 192 1408
WIRE -48 1520 -80 1520
WIRE -48 1568 -80 1568
WIRE 400 1568 400 1296
WIRE 400 1568 192 1568
WIRE 1152 1568 400 1568
WIRE -80 1648 -80 1568
WIRE 0 0 0 0
SYMBOL odnDvSum 48 784 R0
SYMATTR InstName X1
SYMBOL odnDvSum 48 1040 R0
SYMATTR InstName X2
SYMBOL odnDvSum 48 1520 R0
SYMATTR InstName X4
SYMBOL odnDvSum 928 896 R0
SYMATTR InstName X5
SYMBOL odnDvSum 928 1136 R0
SYMATTR InstName X6
SYMBOL odnDvSum 928 1376 R0
SYMATTR InstName X7
SYMBOL korr 496 1232 R0
SYMATTR InstName X8
SYMBOL odnDvSum 48 1280 R0
SYMATTR InstName X3
